11
Properties=species:S:1:pos:R:3 pbc="F F F"
Cl       1.75941100      -0.57745200      -0.20476300
C       -0.78703900       0.55666700      -0.32473100
C        0.59708500       0.74131200       0.28521800
C       -1.53420100      -0.68659100       0.16294000
H       -0.69805600       0.54396100      -1.41763800
H       -1.36066900       1.45963600      -0.06823900
H        0.56436000       0.72058800       1.37727800
H        1.05779900       1.67613500      -0.03953000
H       -1.65821700      -0.67188600       1.25272000
H       -2.53134000      -0.74024000      -0.28682700
H       -0.99353400      -1.60053000      -0.10173000
