18
Properties=species:S:1:pos:R:3 pbc="F F F"
C        0.57496900       0.27053500      -0.16632300
C        1.88119900      -0.46014300       0.16903500
C       -0.67295000      -0.62318500      -0.03413300
C        3.12052500       0.43118500       0.03956600
C       -1.94610500       0.08484800      -0.40981600
C       -2.98353400       0.29135900       0.40223800
H        0.46117400       1.14402200       0.49063300
H        0.63211400       0.66544400      -1.19149100
H        1.98686100      -1.33352600      -0.49035300
H        1.82121700      -0.85769500       1.19219400
H       -0.54117800      -1.50436200      -0.68158800
H       -0.74997400      -1.00082600       0.99427500
H        3.22722100       0.81600700      -0.98219100
H        4.03626000      -0.11855800       0.28546900
H        3.05952500       1.29506600       0.71281000
H       -1.99354600       0.46167100      -1.43366300
H       -3.87507300       0.81819700       0.07219600
H       -2.98250700      -0.06313700       1.43144000
