24
Properties=species:S:1:pos:R:3 pbc="F F F"
C        0.60537800       0.50213000      -0.11660000
C        1.86888800      -0.33354400       0.12488100
C       -0.69207600      -0.23371500       0.24093200
C        3.16770600       0.40046900      -0.23292400
C       -1.95713900       0.61063600      -0.00583400
C        4.42464100      -0.44094000       0.01107300
C       -3.22355700      -0.09856800       0.38980500
C       -4.22703600      -0.40440500      -0.43350500
H        0.66776000       1.43263300       0.46735200
H        0.56952000       0.80906800      -1.17252000
H        1.90572100      -0.64057100       1.18088600
H        1.80639200      -1.26419500      -0.45868500
H       -0.65964000      -0.53775000       1.29753300
H       -0.76348000      -1.16274500      -0.34134300
H        3.23045400       1.33019000       0.35046900
H        3.13119500       0.70667300      -1.28816600
H       -1.86918200       1.54692300       0.56739300
H       -2.00959700       0.89727000      -1.06469700
H        4.50759500      -0.73329000       1.06520700
H        4.40765100      -1.36124100      -0.58582000
H        5.33400700       0.11063700      -0.25375200
H       -3.29587000      -0.38687700       1.44059400
H       -5.11525000      -0.92642800      -0.08722300
H       -4.20028100      -0.14015900      -1.48915600
