15
Properties=species:S:1:pos:R:3 pbc="F F F"
C       -1.15651300      -0.50847800       0.04263100
C       -0.01370100       0.49090200      -0.22062400
C       -2.52512900       0.16877100       0.16165600
C        1.32521000      -0.17525000      -0.38379700
C        2.38985200       0.02992600       0.39259200
H       -0.93566000      -1.06815000       0.96098500
H       -1.18209700      -1.24978600      -0.76842500
H        0.03343400       1.22122000       0.59839100
H       -0.25231200       1.05985100      -1.13308900
H       -2.53900700       0.89326300       0.98522900
H       -3.31777600      -0.56419400       0.35000000
H       -2.78189800       0.70909900      -0.75797100
H        1.40076900      -0.89052500      -1.20552800
H        3.33005700      -0.48963900       0.22704600
H        2.36307100       0.73108900       1.22480400
