26
Properties=species:S:1:pos:R:3 pbc="F F F"
C       -1.46268700       0.03479700       0.00104700
C       -0.07901000      -0.66359600       0.08395000
C        1.16916400       0.22395700      -0.02957700
C       -2.54992800      -1.04986800       0.13875000
C       -1.63388300       1.05553200       1.14325100
C       -1.64079700       0.74525700      -1.35517200
C        2.47495300      -0.57821200       0.06617200
C        3.72941800       0.29424600      -0.04532000
H       -0.03526700      -1.42903500      -0.70567800
H       -0.03051500      -1.21283500       1.03647600
H        1.15950400       0.77051200      -0.98262100
H        1.16440900       0.98664200       0.76124800
H       -2.46956900      -1.79599100      -0.66165600
H       -3.55407300      -0.61111000       0.08701100
H       -2.46474100      -1.57758200       1.09690800
H       -2.64093700       1.49033800       1.12694000
H       -0.91884400       1.88200100       1.06438400
H       -1.49236900       0.58120800       2.12269000
H       -0.92590800       1.56543700      -1.48477900
H       -1.50431200       0.04568200      -2.18960700
H       -2.64804100       1.17153400      -1.44022900
H        2.49407700      -1.12686900       1.01870300
H        2.48928500      -1.34265600      -0.72384100
H        4.64334300      -0.30659200       0.02653800
H        3.76179400       1.04619800       0.75289300
H        3.75693400       0.82880600      -1.00297900
