20
Properties=species:S:1:pos:R:3 pbc="F F F"
C       -1.06943300       0.03396400      -0.30181300
C        0.29959500      -0.47821600       0.18841300
C        1.51548900       0.32274000      -0.29778600
C       -1.39458900       1.44144500       0.22194200
C       -2.18267400      -0.95229700       0.08268500
C        2.84780800      -0.29325600       0.14331600
H       -1.03093800       0.08390300      -1.40148100
H        0.41792200      -1.52249800      -0.13711500
H        0.29813100      -0.50417400       1.28948400
H        1.45814100       1.35493900       0.07117000
H        1.48928800       0.38852500      -1.39518900
H       -0.65761400       2.18362200      -0.10294700
H       -1.41880100       1.45258500       1.31993700
H       -2.37688100       1.77459000      -0.13389600
H       -2.26414500      -1.04525400       1.17375900
H       -3.15726600      -0.62033600      -0.29480800
H       -1.98855000      -1.95282400      -0.32217300
H        2.91701100      -0.34621200       1.23695100
H        2.96068800      -1.31363400      -0.24355100
H        3.69992000       0.29538900      -0.21560000
