12
Properties=species:S:1:pos:R:3 pbc="F F F"
C       -1.21482100      -0.68941100       0.00001500
C       -1.20446600       0.70739300      -0.00000100
C       -0.01033800      -1.39679900       0.00000400
C        0.01038800       1.39683200       0.00004700
C        1.20450400      -0.70736000      -0.00000600
C        1.21486300       0.68944000       0.00000300
H       -2.16027800      -1.22595900       0.00002800
H       -2.14185600       1.25790300      -0.00000800
H       -0.01842300      -2.48385700      -0.00001700
H        0.01842200       2.48389600       0.00006200
H        2.14189200      -1.25788200      -0.00000300
H        2.16031300       1.22600300      -0.00002400
