10
Properties=species:S:1:pos:R:3 pbc="F F F"
C       -0.61222500       0.39526200       0.00002500
C        0.61222700      -0.39511000       0.00002500
C       -1.84772800      -0.12487500       0.00001900
C        1.84772600       0.12503600       0.00001900
H       -0.48685700       1.47856300       0.00002800
H        0.48686700      -1.47841200       0.00002800
H       -2.73337000       0.50325800       0.00001600
H       -2.01256400      -1.20024500       0.00001300
H        2.73337500      -0.50308600       0.00001500
H        2.01255000       1.20040900       0.00001300
