5
Properties=species:S:1:pos:R:3 pbc="F F F"
F       -0.10080600      -1.10104900      -0.73808200
F       -0.03955800      -0.32501800       1.28842600
F       -1.01024100       0.81670300      -0.28221400
F        1.15062000       0.60939200      -0.26814900
C       -0.00001500      -0.00002700       0.00002000
