12
Properties=species:S:1:pos:R:3 pbc="F F F"
C       -0.66819800       0.57805800       0.03691800
C        0.66815300       0.57814300      -0.03684100
C       -1.59122300      -0.60749000       0.08782600
C        1.59132100      -0.60728800      -0.08787300
H       -1.16751000       1.54742900       0.06449700
H        1.16734800       1.54757700      -0.06430700
H       -2.29613900      -0.59049700      -0.75463300
H       -1.06021400      -1.56289300       0.05833300
H       -2.19898300      -0.59067700       1.00285200
H        2.29609400      -0.59041500       0.75471000
H        1.06041700      -1.56275800      -0.05869000
H        2.19923400      -0.59018900      -1.00279100
