18
Properties=species:S:1:pos:R:3 pbc="F F F"
C       -0.04371700      -1.46646800      -0.22936400
C        1.24813000      -0.77108900       0.22933400
C       -1.29182900      -0.69542400       0.22932000
C        1.29182900       0.69541400      -0.22931000
C       -1.24813000       0.77107600      -0.22932200
C        0.04371900       1.46645700       0.22937400
H       -0.04575700      -1.53452500      -1.32766200
H       -0.07447200      -2.49743600       0.14636700
H        1.30594100      -0.80686400       1.32764700
H        2.12562600      -1.31322100      -0.14630000
H       -2.20007800      -1.18427700      -0.14634100
H       -1.35169600      -0.72766500       1.32762300
H        2.20008000       1.18426300       0.14635000
H        1.35169500       0.72765000      -1.32761300
H       -1.30594600       0.80685400      -1.32763400
H       -2.12562200       1.31321300       0.14631800
H        0.04575900       1.53451800       1.32767100
H        0.07446800       2.49742500      -0.14635900
