6
Properties=species:S:1:pos:R:3 pbc="F F F"
C       -0.66536700       0.00000600      -0.00000000
C        0.66540000      -0.00000600       0.00000000
H       -1.23951000      -0.92087600       0.07018100
H       -1.23949300       0.92089800      -0.07018300
H        1.23954300       0.92087600      -0.07018100
H        1.23952600      -0.92089700       0.07018200
