18
Properties=species:S:1:pos:R:3 pbc="F F F"
C        2.05029900       0.00015700       0.56626200
C        0.55752100       0.00006900       0.30900000
C       -0.14825100       1.20266700       0.16853800
C       -0.14811900      -1.20261700       0.16862800
C        2.88098100      -0.00007400      -0.72957100
C       -1.51635600       1.20585100      -0.10663500
C       -1.51622300      -1.20597100      -0.10654400
C       -2.20569400      -0.00010300      -0.24570400
H        2.31939000       0.87941000       1.16540000
H        2.31943700      -0.87884900       1.16574400
H        0.38075700       2.14713300       0.28059300
H        0.38098900      -2.14702000       0.28075500
H        2.65921800      -0.88441300      -1.33757500
H        3.95445300      -0.00000800      -0.50724000
H        2.65917800       0.88402300      -1.33791300
H       -2.04485500       2.15049100      -0.20751500
H       -2.04462000      -2.15067600      -0.20735200
H       -3.27190300      -0.00017000      -0.45627200
