23
Properties=species:S:1:pos:R:3 pbc="F F F"
C       -0.00048500      -0.48182200      -0.00663200
C       -1.28477000       0.35707500       0.00217800
C        1.28268800       0.35879300      -0.00001400
C       -2.56803000      -0.48356700      -0.00498600
C        2.56710100      -0.48010000      -0.00836600
C       -3.84551900       0.36223400       0.00451000
C        3.84347000       0.36741500      -0.00194900
H        0.00070500      -1.15243300       0.86571600
H       -0.00080000      -1.13631200      -0.89113900
H       -1.28693600       1.02810700      -0.86993400
H       -1.28575100       1.01140700       0.88688900
H        1.28398600       1.01365500       0.88431200
H        1.28277400       1.02931900      -0.87252000
H       -2.56783300      -1.13651700      -0.88948900
H       -2.56628800      -1.15387300       0.86643700
H        2.56769500      -1.14943300       0.86380900
H        2.56633800      -1.13406000      -0.89212700
H       -4.74318700      -0.26668600      -0.00142600
H       -3.89291900       1.01851400      -0.87336100
H       -3.89183700       1.00029800       0.89576000
H        3.88900300       1.02207600      -0.88111500
H        3.88993300       1.00724500       0.88802400
H        4.74196200      -0.26033400      -0.00767700
