13
Properties=species:S:1:pos:R:3 pbc="F F F"
C       -0.53041700       0.04693500       0.00001300
C       -0.67559400      -1.45581800       0.00000500
C        0.81941200       0.62451200      -0.00000500
C       -1.60325100       0.85664800       0.00001600
C        1.97138800      -0.06051400      -0.00001700
H       -0.19613800      -1.90026600      -0.88141400
H       -1.72846000      -1.75153900       0.00001100
H       -0.19612400      -1.90027300       0.88141200
H        0.85828100       1.71392700      -0.00000200
H       -2.61688600       0.46571400       0.00001200
H       -1.49905900       1.93891900       0.00000500
H        2.92949600       0.45066900      -0.00001900
H        2.00435200      -1.14641400      -0.00001600
