5
Properties=species:S:1:pos:R:3 pbc="F F F"
C       -0.00001500       0.00001400       0.00000000
H        0.55467100       0.80040100       0.49699800
H        0.68400000      -0.81422000      -0.25385500
H       -0.77898900      -0.37387400       0.66985700
H       -0.45976800       0.38777800      -0.91300000
