26
Properties=species:S:1:pos:R:3 pbc="F F F"
C       -0.62842000      -0.44089500      -0.00281200
C        0.62787000       0.43971900      -0.00147100
C       -1.93824800       0.35761500      -0.00235000
C        1.93769500      -0.35876200      -0.00166600
C       -3.19473800      -0.52264000      -0.00374100
C        3.19414800       0.52152300      -0.00051800
C       -4.49803900       0.28283800      -0.00320500
C        4.49743600      -0.28396300      -0.00062100
H       -0.60757000      -1.10408300       0.87490200
H       -0.60702500      -1.10217300      -0.88195600
H        0.60637000       1.10115100       0.87755500
H        0.60708600       1.10276400      -0.87929800
H       -1.96022200       1.02094200      -0.88007300
H       -1.96079300       1.01898900       0.87683100
H        1.96029100      -1.02040800      -0.88064500
H        1.95967500      -1.02183100       0.87625500
H       -3.17340500      -1.18496400       0.87350800
H       -3.17286800      -1.18294900      -0.88249400
H        3.17220700       1.18217100       0.87798100
H        3.17287800       1.18350500      -0.87802800
H       -4.56549600       0.92711400       0.88220500
H       -4.56479300       0.92941100      -0.88699400
H       -5.37561300      -0.37388200      -0.00440800
H        5.37499100       0.37277600      -0.00001400
H        4.56477900      -0.92888100      -0.88557700
H        4.56430500      -0.92988700       0.88363500
