17
Properties=species:S:1:pos:R:3 pbc="F F F"
C       -0.00000200       0.33147500      -0.00061900
C        1.28393400      -0.50787400       0.00612700
C       -1.28392600      -0.50789300       0.00612800
C        2.56089100       0.33873800      -0.00055800
C       -2.56089600       0.33870000      -0.00055800
H       -0.00000700       0.98726000      -0.88443300
H       -0.00000700       1.00140500       0.87252000
H        1.28343700      -1.17652700      -0.86660300
H        1.28338000      -1.16252700       0.88940700
H       -1.28341900      -1.17654700      -0.86660200
H       -1.28336200      -1.16254500       0.88940800
H        2.60753200       0.99266500       0.87909200
H        2.60714600       0.97923500      -0.89005700
H        3.45895500      -0.28961900       0.00400900
H       -2.60754400       0.99263100       0.87908700
H       -3.45895000      -0.28967000       0.00401400
H       -2.60716200       0.97919200      -0.89006100
