11
Properties=species:S:1:pos:R:3 pbc="F F F"
F       -0.00007800       1.37726700       1.09706600
F        0.00006800       1.36733000      -1.10948900
F        1.36833800      -1.01619000      -1.08641800
F        1.36644600      -1.00928200       1.09373600
F        2.35415100       0.59534700      -0.00069300
F       -1.36844100      -1.00619700       1.09570800
F       -2.35414500       0.59527800      -0.00506800
F       -1.36626400      -1.01931200      -1.08441800
C        0.00000300       0.58993100      -0.00263800
C        1.30732700      -0.23712300       0.00109200
C       -1.30730500      -0.23714900       0.00102000
