7
Properties=species:S:1:pos:R:3 pbc="F F F"
C       -1.37237500       0.00012000      -0.00004700
C        0.08708300       0.00025900      -0.00018600
C        1.29441100       0.00064700      -0.00045100
H       -1.76985400       0.06587600       1.02014800
H       -1.77014500       0.85063800      -0.56705700
H       -1.76988200      -0.91631000      -0.45308500
H        2.36056100      -0.00043000       0.00027800
