11
Properties=species:S:1:pos:R:3 pbc="F F F"
C        0.00000500      -0.56618000      -0.00000600
C       -1.27747000       0.28044100      -0.00000800
C        1.27746700       0.28047100       0.00001200
H        0.00001000      -1.22635300       0.87792400
H        0.00002100      -1.22633600      -0.87794900
H       -1.32302800       0.92755400       0.88483000
H       -1.32296900       0.92763200      -0.88479100
H       -2.17592400      -0.34760100      -0.00006200
H        2.17592600      -0.34756300       0.00001600
H        1.32297300       0.92761100       0.88483100
H        1.32298900       0.92762400      -0.88479600
