16
Properties=species:S:1:pos:R:3 pbc="F F F"
C        0.55734000      -0.20529000      -0.00973600
C       -0.35335500      -1.27389100       0.05068400
C        0.03752600       1.10054400      -0.07952400
C       -1.73012400      -1.05310000       0.04209200
C       -1.33594200       1.32331000      -0.08823500
C       -2.22799500       0.24798200      -0.02748900
C        1.99993400      -0.49922000       0.00268600
C        3.01374600       0.37395900      -0.04744300
H        0.02859100      -2.29100400       0.10509300
H        0.71389900       1.94908700      -0.12739200
H       -2.41260000      -1.89762900       0.08974900
H       -1.71469700       2.34070800      -0.14267000
H       -3.29999400       0.42557300      -0.03448300
H        2.24230200      -1.56064800       0.05990600
H        4.04426300       0.03264500      -0.03145000
H        2.86590700       1.44897300      -0.10568800
