15
Properties=species:S:1:pos:R:3 pbc="F F F"
C       -0.98882000       0.00005600       0.01486600
C       -0.26925500       1.20241200       0.01117400
C       -0.26935500      -1.20236500       0.01118200
C       -2.50046100       0.00011000      -0.00247100
C        1.12620500       1.20538800      -0.00240900
C        1.12610100      -1.20545800      -0.00240100
C        1.82996400      -0.00006300      -0.00977000
H       -0.80935200       2.14692800       0.02085300
H       -0.80953100      -2.14683700       0.02086900
H       -2.90752500      -0.88566800       0.49699500
H       -2.90744700       0.88642700       0.49609300
H       -2.88743200      -0.00040600      -1.03045000
H        1.66363600       2.15036900      -0.00268600
H        1.66345400      -2.15048200      -0.00267300
H        2.91671800      -0.00011100      -0.01697200
