12
Properties=species:S:1:pos:R:3 pbc="F F F"
C       -0.54332000      -0.38795500       0.00010500
C        0.54331600       0.38801600       0.00009200
C       -1.96236200       0.10711000       0.00015200
C        1.96236100      -0.10702200       0.00012600
H       -0.41270800      -1.47215800       0.00011800
H        0.41269800       1.47221900       0.00009300
H       -2.51163400      -0.25301700       0.88084500
H       -2.00505200       1.20182000       0.00018300
H       -2.51168000      -0.25297500      -0.88052600
H        2.51162100       0.25307100       0.88084200
H        2.00508300      -1.20173100       0.00009700
H        2.51167800       0.25312400      -0.88052800
