18
Properties=species:S:1:pos:R:3 pbc="F F F"
C        0.57951900       0.70594700      -0.00010900
C        0.57965100      -0.70584900      -0.00002500
C       -0.64441700       1.38414700      -0.00013200
C       -0.64415900      -1.38427700       0.00001400
C        1.87716900       1.48004600      -0.00015900
C        1.87744400      -1.47970700      -0.00007200
C       -1.85885600       0.69644700      -0.00008700
C       -1.85872500      -0.69680200      -0.00002200
H       -0.64311100       2.47211800      -0.00019500
H       -0.64265300      -2.47224800       0.00009000
H        2.49036300       1.24734100       0.88040500
H        2.49096900       1.24623600      -0.87999600
H        1.69265000       2.55868800      -0.00088200
H        2.49148300      -1.24544700       0.87947400
H        1.69312500      -2.55838300       0.00111700
H        2.49031200      -1.24722500      -0.88092600
H       -2.79574900       1.24739300      -0.00010700
H       -2.79551500      -1.24792300       0.00001400
